I"<h1 id="publications">Publications</h1>
<h3 id="2020">2020</h3>

<p>Global modeling of cloudwater acidity, rainwater acidity, and acid inputs to ecosystems <br />
  <em>V Shah V, DJ Jacob, JM Moch, X Wang, S Zhai </em><br /><a href=""></a>  <em>submitted to Atmospheric Chemistry and Physics </em><br /></p>

<p>Controlling particulate nitrate pollution in China <br />
  <em>S Zhai, DJ Jacob, X Wang, Z Liu, T Wen, V Shah, K Li, J Moch, KH. Bates, S Song, L Shen, Y Zhang, G Luo, F Yu, Y Sun, L Wang, M Qi, J Tao, K Gui, H Xu, Q Zhang, T Zhao, HC Lee, H Choi, H Liao </em><br /><a href=""></a>  <em>submitted to PNAS </em><br /></p>

<p>Effects of anthropogenic chlorine on PM2.5 and ozone air quality in China <br />
  <em>X Wang, DJ Jacob, X Fu, T Wang, M Le Breton, M Hallquist, Z Liu, EE McDuffie, H Liao </em><br /><a href=""></a>  <em>submitted to Environmental Science and Technology </em><br /></p>

<p>Enhanced Aerosol Particle Growth Sustained by High Continental Chlorine Emission in India <br />
  <em>SS Gunthe, P Liu, U Panda, SS Raj, A Shama, E Debyshire, E Reyes-Villegas, Y Chen, X Wang, S Song, ML Pöhker, L Shi, Y Wang, SM Kommula, R Ravikrishna, N Ojha, G McFiggans,  LJ Mickley, ST Martin, U Pöschl, H Coe </em><br /><a href=""></a>  <em>submitted to Nature </em><br /></p>

<p>Lifecycle of light-absorbing carbonaceous aerosols <br />
  <em>D Liu, C He, JP Schwarz, X Wang </em><br /><a href=""></a>  <em>submitted to npj Climate and Atmospheric Science </em><br /></p>

<p>Observational constraints on ambient brown carbon with IMPROVE network observations <br />
  <em>N June, X Wang, L-W A Chen, JC Chow, JG Watson. XL Wang, BH Henderson, Y Zheng, J Mao* </em><br /><a href=""></a>  <em>submitted to Environmental Science and Technology </em><br /></p>

<p>Constraining remote oxidation capacity with ATom observations <br />
  <em>KR Travis, CL Heald, HM Allen, EC Apel, SR Arnold, DR Blake, WH Brune, X Chen, R Commane, JD Crounse, BC Daube, GS Diskin, JW Elkins, MJ Evans, SR Hall, EJ Hintsa, RS Hornbrook, PS Kasibhatla, MJ Kim, G Luo, K McKain, DB Millet, FL Moore, J Peischl, TB Ryerson, T Sherwen, AB Thames, K Ullmann, X Wang, PO Wennberg, GM Wolfe, F Yu </em><br /><a href="https://www.atmos-chem-phys-discuss.net/acp-2019-931/">Atmospheric Chemistry and Physics, in press</a>  <em> </em><br /></p>

<p>An adaptive method for speeding up the numerical integration of chemical mechanisms in atmospheric chemistry models: application to GEOS-Chem version 12.0.0 <br />
  <em>L Shen, DJ Jacob, M Santillana, X Wang, W Chen </em><br /><a href="https://www.geosci-model-dev.net/13/2475/2020/">Geoscientific Model Development, 13, 2475–2486</a>  <em> </em><br /></p>

<p>Effects of sea salt aerosol emissions for Marine Cloud Brightening on atmospheric chemistry: Implications for radiative forcing <br />
  <em>HM Horowitz, C Holmes, A Wright, T Sherwen, X Wang, M Evans, J Huang, L Jaeglé, Q Chen, S Zhai, B Alexander </em><br /><a href="https://agupubs.onlinelibrary.wiley.com/doi/abs/10.1029/2019GL085838">Geophysical Research Letters, 47, e2019GL085838</a>  <em> </em><br /></p>

<h3 id="2019">2019</h3>

<p>Fine particulate matter (PM2.5) trends in China, 2013–2018: separating contributions from anthropogenic emissions and meteorology <br />
  <em>S Zhai, DJ Jacob, X Wang, L Shen, K Li, Y Zhang, K Gui, T Zhao, H Liao </em><br /><a href="https://www.atmos-chem-phys.net/19/11031/2019/">Atmospheric Chemistry and Physics 19 (16), 11031-11041</a></p>

<p>Effect of sea salt aerosol on tropospheric bromine chemistry <br />
  <em>L Zhu, DJ Jacob, SD Eastham, MP Sulprizio, X Wang, T Sherwen, MJ Evans, Q Chen, B Alexander, TK Koenig, R Volkamer, GL Huey, M Le Breton, TJ Bannan, CJ Percival </em><br /><a href="https://www.atmos-chem-phys.net/19/6497/2019/acp-19-6497-2019.html">Atmospheric Chemistry and Physics 19 (9), 6497-6507</a></p>

<p>The role of chlorine in global tropospheric chemistry <br />
  <em>X Wang, DJ Jacob, SD Eastham, MP Sulprizio, L Zhu, Q Chen, B Alexander, T Sherwen, MJ Evans, BH Lee, JD Haskins, FD Lopez-Hilfiker, JA Thornton, GL Huey, H Liao </em><br /><a href="https://www.atmos-chem-phys.net/19/3981/2019/">Atmospheric Chemistry and Physics 19 (6), 3981-4003</a></p>

<h3 id="2018-and-before">2018 and before</h3>

<p>Exploring the observational constraints on the simulation of brown carbon <br />
  <em>X Wang, CL Heald, J Liu, RJ Weber, P Campuzano-Jost, JL Jimenez, JP Schwarz, AE Perring </em><br /><a href="https://www.atmos-chem-phys.net/18/635/2018/">Atmospheric Chemistry and Physics 18 (18), 635–653</a></p>

<p>Deriving brown carbon from multiwavelength absorption measurements: method and application to AERONET and Aethalometer observations <br />
  <em>X Wang, CL Heald, AJ Sedlacek, SS de Sá, ST Martin, ML Alexander, TB Watson, AC Aiken, SR Springston, P Artaxo </em><br /><a href="https://www.atmos-chem-phys.net/16/12733/2016/">Atmospheric Chemistry and Physics 16 (19), 12733-12752</a></p>

<p>Exploiting simultaneous observational constraints on mass and absorption to estimate the global direct radiative forcing of black carbon and brown carbon <br />
  <em>X Wang, CL Heald, DA Ridley, JP Schwarz, JR Spackman, AE Perring, H Coe, D Liu, AD Clarke </em><br /><a href="https://www.atmos-chem-phys.net/14/10989/2014/">Atmospheric Chemistry and Physics 14 (20), 10989-11010</a></p>

<p>Top‐down estimate of China’s black carbon emissions using surface observations: Sensitivity to observation representativeness and transport model error <br />
  <em>X Wang, Y Wang, J Hao, Y Kondo, M Irwin, JW Munger, Y Zhao </em><br /><a href="https://agupubs.onlinelibrary.wiley.com/doi/full/10.1002/jgrd.50397">Journal of Geophysical Research, Atmospheres 118 (11), 5781-5795</a></p>

<p>Black carbon and its correlation with trace gases at a rural site in Beijing: Top‐down constraints from ambient measurements on bottom‐up emissions <br />
  <em>Y Wang, X Wang, Y Kondo, M Kajino, JW Munger, J Hao </em><br /><a href="https://agupubs.onlinelibrary.wiley.com/doi/full/10.1029/2011JD016575">Journal of Geophysical Research, Atmospheres 116 (D24)</a></p>

:ET